RUNSPEC
TITLE
CoreSimulation
DIMENS
8	8	29/
OIL
WATER
LAB
EQLDIMS
1 100 10 0 0 /
TABDIMS
1 1 50 15 0 15/
REGDIMS
0 0 0 0/
WELLDIMS
3 100 1 3/
NSTACK
50/
START
12 OCT 2015/
UNIFOUT
GRID
INIT
GRIDFILE
0 1/
DX
1856*0.25/
DY
1856*0.25/
DZ
1856*1.76/
TOPS
64*51.04
64*49.28
64*47.52
64*45.76
64*44.0
64*42.24
64*40.48
64*38.72
64*36.96
64*35.2
64*33.44
64*31.68
64*29.92
64*28.16
64*26.4
64*24.64
64*22.88
64*21.12
64*19.36
64*17.6
64*15.84
64*14.08
64*12.32
64*10.56
64*8.8
64*7.04
64*5.28
64*3.52
64*1.76
/
INCLUDE
'PORO.INC' /
INCLUDE
'PERMX.INC' /
INCLUDE
'ACTNUM.INC' /
COPY
PERMX PERMY /
PERMX PERMZ /
/
EDIT
PROPS

SWFN
-- SW	KRW	PCw
 	0.30	0	0.0
 	0.33	2.47759434587e-06	0.0
 	0.37	5.21676529262e-05	0.0
 	0.40	0.00032026648253	0.0
 	0.43	0.00119067576232	0.0
 	0.47	0.00337108448697	0.0
 	0.50	0.00804849160071	0.0
 	0.53	0.0171028705618	0.0
 	0.57	0.0333800325532	0.0
 	0.60	0.0609842094136	0.0
 	0.63	0.105451662651	0.0
 	0.67	0.173477618158	0.0
 	0.70	0.271631884132	0.0
 	0.73	0.403510117002	0.0
 	0.77	0.565687085306	0.0
 	0.80	0.744933521013	0.0
 	0.83	0.920407650754	0.0
 	1.00	1.000000	0
 	/

SOF2
-- SO	KROW	KROG
 	0.00	0.000000
 	0.03	0.000000
 	0.07	0.000000
 	0.10	0.000000
 	0.13	0.000000
 	0.17	0.000000
 	0.20	0.000007
 	0.23	0.000092
 	0.27	0.000527
 	0.30	0.001980
 	0.33	0.005798
 	0.37	0.014384
 	0.40	0.031645
 	0.43	0.063334
 	0.47	0.116816
 	0.50	0.199416
 	0.53	0.314688
 	0.57	0.457731
 	0.60	0.613662
 	0.63	0.762914
 	0.67	0.890737
 	0.70	1.000000
 	/
DENSITY
0.78	1.0/
PVCDO
1	1	0.0	1.2
/
PVTW
1	1	0.0	0.36
/
ROCK
5801.5         2.8e-6   /
REGIONS
SOLUTION
PRESSURE
1856*1 /
SWAT
1856*0.3/
SUMMARY
FOPT
FWPT
FOIT
FWIT
BPR 
 5	5 1 /
5	5	29 /
/
RUNSUM
SCHEDULE
RPTSCHED
'FIP=3' 'RESTART=2'  'WELLS=5'  'SUMMARY=2' 'RS' 'SGAS'  'SOIL'  'SWAT' 'PRESSURE' 'CPU=1' 'NEWTON=1'/
WELSPECS
INJ1 G 5	5 1* WATER  /
INJ2 G 5	5 1* OIL  /
PROD1 G 5	5 1* OIL  /
/
COMPDAT
INJ1 2*   1 1 OPEN 2* 0.01 3* Z /
INJ2 2*   1 1 OPEN 2* 0.01 3* Z /
PROD1 2* 29 	29 OPEN 2* 0.01 3* Z /
/
WCONPROD
PROD1 OPEN BHP 5* 1 /
/
WCONINJE
INJ1 WATER OPEN RATE 12.0 /
INJ2 OIL OPEN RATE 12.0 /
/
WCONPROD
PROD1 OPEN BHP 5* 1 /
/
WCONINJE
INJ1 WATER OPEN RATE 1.2 /
INJ2 OIL OPEN RATE 10.8 /
/
TSTEP
10*0.017/
WCONPROD
PROD1 OPEN BHP 5* 1 /
/
WCONINJE
INJ1 WATER OPEN RATE 2.4 /
INJ2 OIL OPEN RATE 9.6 /
/
TSTEP
10*0.017/
WCONPROD
PROD1 OPEN BHP 5* 1 /
/
WCONINJE
INJ1 WATER OPEN RATE 3.6 /
INJ2 OIL OPEN RATE 8.4 /
/
TSTEP
10*0.017/
WCONPROD
PROD1 OPEN BHP 5* 1 /
/
WCONINJE
INJ1 WATER OPEN RATE 4.8 /
INJ2 OIL OPEN RATE 7.2 /
/
TSTEP
10*0.017/
WCONPROD
PROD1 OPEN BHP 5* 1 /
/
WCONINJE
INJ1 WATER OPEN RATE 6.0 /
INJ2 OIL OPEN RATE 6.0 /
/
TSTEP
10*0.017/
WCONPROD
PROD1 OPEN BHP 5* 1 /
/
WCONINJE
INJ1 WATER OPEN RATE 7.2 /
INJ2 OIL OPEN RATE 4.8 /
/
TSTEP
10*0.017/
WCONPROD
PROD1 OPEN BHP 5* 1 /
/
WCONINJE
INJ1 WATER OPEN RATE 8.4 /
INJ2 OIL OPEN RATE 3.6 /
/
TSTEP
10*0.017/
WCONPROD
PROD1 OPEN BHP 5* 1 /
/
WCONINJE
INJ1 WATER OPEN RATE 9.6 /
INJ2 OIL OPEN RATE 2.4 /
/
TSTEP
10*0.017/
WCONPROD
PROD1 OPEN BHP 5* 1 /
/
WCONINJE
INJ1 WATER OPEN RATE 10.8 /
INJ2 OIL OPEN RATE 1.2 /
/
TSTEP
10*0.017/
