RUNSPEC
TITLE
CoreSimulation
DIMENS
5	5	5/
OIL
WATER
LAB
EQLDIMS
1 100 10 0 0 /
TABDIMS
1 1 50 15 0 15/
REGDIMS
0 0 0 0/
WELLDIMS
3 100 1 3/
NSTACK
50/
START
12 OCT 2015/
UNIFOUT
GRID
INIT
GRIDFILE
0 1/
DX
125*1.0/
DY
125*1.0/
DZ
125*20.0/
TOPS
25*100.0
25*80.0
25*60.0
25*40.0
25*20.0
/
INCLUDE
'PORO.INC' /
INCLUDE
'PERMX.INC' /
INCLUDE
'ACTNUM.INC' /
COPY
PERMX PERMY /
PERMX PERMZ /
/
EDIT
PROPS

SWFN
-- SW	KRW	PCw
 	0.30	0	0.0
 	0.33	0.029484029484	0.0
 	0.37	0.0652173913043	0.0
 	0.40	0.108108108108	0.0
 	0.43	0.158940397351	0.0
 	0.47	0.218181818182	0.0
 	0.50	0.285714285714	0.0
 	0.53	0.360515021459	0.0
 	0.57	0.440366972477	0.0
 	0.60	0.521739130435	0.0
 	0.63	0.6	0.0
 	0.67	0.670050761421	0.0
 	0.70	0.727272727273	0.0
 	0.73	0.768472906404	0.0
 	0.77	0.792452830189	0.0
 	0.80	0.792452830189	0.0
 	1.00	1.000000	0
 	/

SOF2
-- SO	KROW	KROG
 	0.00	0.000000
 	0.03	0.000000
 	0.07	0.000000
 	0.10	0.000000
 	0.13	0.000000
 	0.17	0.000000
 	0.20	0.000000
 	0.23	0.080316
 	0.27	0.140892
 	0.30	0.203284
 	0.33	0.270547
 	0.37	0.343874
 	0.40	0.423459
 	0.43	0.508538
 	0.47	0.597261
 	0.50	0.686597
 	0.53	0.772443
 	0.57	0.850015
 	0.60	0.914556
 	0.63	0.962209
 	0.67	0.990760
 	0.70	1.000000
 	/
DENSITY
0.78	1.0/
PVCDO
1	1	0.0	1.2
/
PVTW
1	1	0.0	0.36
/
ROCK
5801.5         2.8e-6   /
REGIONS
SOLUTION
PRESSURE
125*1 /
SWAT
125*0.3/
SUMMARY
FOPT
FWPT
FOIT
FWIT
BPR 
 3	3 1 /
3	3	5 /
/
RUNSUM
SCHEDULE
RPTSCHED
'FIP=3' 'RESTART=2'  'WELLS=5'  'SUMMARY=2' 'RS' 'SGAS'  'SOIL'  'SWAT' 'PRESSURE' 'CPU=1' 'NEWTON=1'/
WELSPECS
INJ1 G 3	3 1* WATER  /
PROD1 G 3	3 1* OIL  /
/
COMPDAT
INJ1 2*   1 1 OPEN 2* 0.01 3* Z /
PROD1 2* 5 	5 OPEN 2* 0.01 3* Z /
/
WCONPROD
PROD1 OPEN BHP 5* 1 /
/
WCONINJE
INJ1 WATER OPEN RATE 12.0 /
/
TSTEP
100*0.017/
