RUNSPEC
TITLE
CoreSimulation
DIMENS
10	10	31/
OIL
WATER
LAB
EQLDIMS
1 100 10 0 0 /
TABDIMS
1 1 50 15 0 15/
REGDIMS
0 0 0 0/
WELLDIMS
3 100 1 3/
NSTACK
50/
START
12 OCT 2015/
UNIFOUT
GRID
INIT
GRIDFILE
0 1/
DX
3100*0.37/
DY
3100*0.37/
DZ
3100*0.48/
TOPS
100*14.88
100*14.4
100*13.92
100*13.44
100*12.96
100*12.48
100*12.0
100*11.52
100*11.04
100*10.56
100*10.08
100*9.6
100*9.12
100*8.64
100*8.16
100*7.68
100*7.2
100*6.72
100*6.24
100*5.76
100*5.28
100*4.8
100*4.32
100*3.84
100*3.36
100*2.88
100*2.4
100*1.92
100*1.44
100*0.96
100*0.48
/
INCLUDE
'PORO.INC' /
INCLUDE
'PERMX.INC' /
INCLUDE
'ACTNUM.INC' /
COPY
PERMX PERMY /
PERMX PERMZ /
/
EDIT
PROPS

SWFN
-- SW	KRW	PCw
 	0.15	0	0.0
 	0.20	5.08032990065e-06	0.0
 	0.23	4.81599149737e-05	0.0
 	0.27	0.000216320114397	0.0
 	0.30	0.000675729095439	0.0
 	0.33	0.00170303641973	0.0
 	0.37	0.00372627093073	0.0
 	0.40	0.00737818934786	0.0
 	0.43	0.0135642716924	0.0
 	0.47	0.0235451863372	0.0
 	0.50	0.0390276064737	0.0
 	0.53	0.0622447774419	0.0
 	0.57	0.0959855427233	0.0
 	0.60	0.143495960447	0.0
 	0.63	0.208139327145	0.0
 	0.67	0.292690879443	0.0
 	0.70	0.398230730779	0.0
 	0.73	0.522855571826	0.0
 	0.77	0.660810606705	0.0
 	0.80	0.802834057491	0.0
 	0.83	0.93806648846	0.0
 	1.00	1.000000	0
 	/

SOF2
-- SO	KROW	KROG
 	0.00	0.000000
 	0.03	0.000000
 	0.07	0.000000
 	0.10	0.000000
 	0.13	0.000000
 	0.17	0.000000
 	0.20	0.000002
 	0.23	0.000027
 	0.27	0.000150
 	0.30	0.000556
 	0.33	0.001598
 	0.37	0.003891
 	0.40	0.008425
 	0.43	0.016690
 	0.47	0.030820
 	0.50	0.053675
 	0.53	0.088774
 	0.57	0.139898
 	0.60	0.210205
 	0.63	0.300834
 	0.67	0.409458
 	0.70	0.529708
 	0.73	0.652332
 	0.77	0.767905
 	0.80	0.869784
 	0.83	0.956641
 	0.85	1.000000
 	/
DENSITY
0.78	1.0/
PVCDO
1	1	0.0	1.2
/
PVTW
1	1	0.0	0.36
/
ROCK
5801.5         2.8e-6   /
REGIONS
SOLUTION
PRESSURE
3100*1 /
SWAT
3100*0.15/
SUMMARY
FOPT
FWPT
FOIT
FWIT
BPR 
 6	6 1 /
6	6	31 /
/
RUNSUM
SCHEDULE
RPTSCHED
'FIP=3' 'RESTART=2'  'WELLS=5'  'SUMMARY=2' 'RS' 'SGAS'  'SOIL'  'SWAT' 'PRESSURE' 'CPU=1' 'NEWTON=1'/
WELSPECS
INJ1 G 6	6 1* WATER  /
PROD1 G 6	6 1* OIL  /
/
COMPDAT
INJ1 2*   1 1 OPEN 2* 0.01 3* Z /
PROD1 2* 31 	31 OPEN 2* 0.01 3* Z /
/
WCONPROD
PROD1 OPEN BHP 5* 1 /
/
WCONINJE
INJ1 WATER OPEN RATE 12.0 /
/
TSTEP
100*0.017/
